Version 4
SHEET 1 880 680
WIRE 464 80 432 80
WIRE 592 80 560 80
WIRE 96 144 -16 144
WIRE 512 144 512 128
WIRE 512 144 288 144
WIRE -16 160 -16 144
WIRE 192 224 192 208
WIRE -16 272 -16 240
FLAG 192 224 0
FLAG -16 272 0
FLAG 592 80 out
IOPIN 592 80 Out
SYMBOL ZZZ\\zcontrol\\pid 192 144 R0
WINDOW 3 -1 -104 Center 2
SYMATTR Value Kp=1 Ti=0.01/6.28 Td=0.00001/6.28
SYMATTR InstName U1
SYMBOL voltage -16 144 R0
WINDOW 123 -86 19 Left 2
WINDOW 39 0 0 Left 0
SYMATTR InstName V1
SYMATTR Value ""
SYMATTR Value2 AC 1 0
SYMBOL ValVol\\fblocks\\div 512 16 R0
SYMATTR InstName U3
SYMBOL ZZZ\\Sig&SysProc\\const 400 80 R0
SYMATTR InstName U2
TEXT 46 272 Left 2 !.ac dec 30 1 1000000
